0,   100.00, 33, 0, 1, 50.00     / PSS(R)E-33.4    SUN, JAN 10 2021  13:29
PICO HÁBIL DIURNO VERANO 2015 DEMANDA SADI 26000 MW

    10,'NPMADRYN    ', 500.0000,1,   1,   6,   1,0.99601,  19.0312,1.10000,0.90000,1.10000,0.90000
    11,'MADRY.CL    ', 500.0000,4,   1,   6,   1,1.00000,   0.0000,1.10000,0.90000,1.10000,0.90000
    12,'SCN_500     ', 500.0000,1,  21,   2,  10,1.01889,  20.0036,1.10000,0.90000,1.10000,0.90000
    15,'RSCRUZ      ', 500.0000,1,  21,  54,  10,1.01572,  20.8148,1.10000,0.90000,1.10000,0.90000
    19,'ESPERANZ    ', 500.0000,1,  21,  54,  10,1.00974,  21.2079,1.10000,0.90000,1.10000,0.90000
    20,'GARACCB1    ', 525.0000,4,  20,  49,  10,1.00000,   0.0000,1.10000,0.90000,1.10000,0.90000
    22,'GARACCB2    ', 525.0000,4,  20,  49,  10,1.00000,   0.0000,1.10000,0.90000,1.10000,0.90000
    30,'ITA         ', 525.0000,4,  20,  49,  10,1.00000,   0.0000,1.10000,0.90000,1.10000,0.90000
   100,'FUTAL330    ', 330.0000,1,  21,  59,  10,1.10406,  40.0749,1.10000,0.90000,1.10000,0.90000
   102,'FUTAHI01    ',  13.8000,2,  21,  59,   6,1.00000,  46.3451,1.10000,0.90000,1.10000,0.90000
   104,'FUTAHI02    ',  13.8000,2,  21,  59,   6,1.00000,  46.3451,1.10000,0.90000,1.10000,0.90000
   106,'FUTAHI03    ',  13.8000,2,  21,  59,   6,1.00000,  46.3451,1.10000,0.90000,1.10000,0.90000
   108,'FUTAHI04    ',  13.8000,2,  21,  59,   6,1.00000,  46.3451,1.10000,0.90000,1.10000,0.90000
   110,'FUTA33-2    ',  33.0000,4,  21,  59,  10,1.00000,   0.0000,1.10000,0.90000,1.10000,0.90000
   112,'FUTA33-1    ',  33.0000,1,  21,  59,  10,1.04545,  46.3451,1.10000,0.90000,1.10000,0.90000
   115,'R.TURBIO    ', 220.0000,1,  21,  54,   1,1.03453,  25.6040,1.10000,0.90000,1.10000,0.90000
   117,'ESPERANZ    ', 220.0000,1,  21,  54,   1,1.03571,  22.1549,1.10000,0.90000,1.10000,0.90000
   118,'RGALLEGO    ', 220.0000,1,  21,  54,   1,1.03355,  21.0701,1.10000,0.90000,1.10000,0.90000
   120,'C-LEUFU     ', 330.0000,4,  21,  59,  10,1.00000,   0.0000,1.10000,0.90000,1.10000,0.90000
   190,'ALTG09CC    ',  10.5000,2,  21,  58,   8,1.00206,  27.5705,1.10000,0.90000,1.10000,0.90000
   191,'ALTG10CC    ',  10.5000,2,  21,  58,   8,1.00206,  27.5705,1.10000,0.90000,1.10000,0.90000
   192,'ALTV11CC    ',  10.5000,2,  21,  58,   8,1.00399,  26.5008,1.10000,0.90000,1.10000,0.90000
   193,'SERIE DT    ', 132.0000,1,  21,  58,   2,0.99989,  21.0148,1.10000,0.90000,1.10000,0.90000
   200,'PMADR330    ', 330.0000,1,  21,  51,   1,0.99749,  22.1790,1.10000,0.90000,1.10000,0.90000
   201,'AL-FIAT1    ',  13.2000,4,  21,  58,   4,1.00000,   0.0000,1.10000,0.90000,1.10000,0.90000
   202,'AL-FIAT2    ',  13.2000,4,  21,  58,   4,1.00000,   0.0000,1.10000,0.90000,1.10000,0.90000
   203,'AL-FIAT3    ',  13.2000,4,  21,  58,   4,1.00000,   0.0000,1.10000,0.90000,1.10000,0.90000
   204,'AL-FIAT4    ',  13.2000,4,  21,  58,   4,1.00000,   0.0000,1.10000,0.90000,1.10000,0.90000
   205,'AL-FRAM5    ',  11.0000,4,  21,  58,   4,1.00000,   0.0000,1.10000,0.90000,1.10000,0.90000
   206,'AL-FRAM6    ',  11.0000,4,  21,  58,   4,1.00000,   0.0000,1.10000,0.90000,1.10000,0.90000
   207,'ALCC-TG7    ',  11.0000,2,  21,  58,   8,1.01215,  23.7751,1.10000,0.90000,1.10000,0.90000
   208,'ALCC-TG8    ',  11.0000,2,  21,  58,   8,1.01215,  23.7751,1.10000,0.90000,1.10000,0.90000
   209,'ALCC-TV1    ',  11.0000,2,  21,  58,   8,1.01324,  22.9835,1.10000,0.90000,1.10000,0.90000
   210,'APPA330A    ', 330.0000,1,  21,  58,   2,0.99659,  22.1315,1.10000,0.90000,1.10000,0.90000
   211,'APPA330B    ', 330.0000,1,  21,  58,   2,0.99656,  22.1367,1.10000,0.90000,1.10000,0.90000
   212,'AL-CE0A2    ',  33.0000,1,  21,  58,   2,1.00016,  18.8059,1.10000,0.90000,1.10000,0.90000
   213,'APPA330C    ', 330.0000,1,  21,  58,   2,0.99657,  22.1374,1.10000,0.90000,1.10000,0.90000
   214,'AL-CE0B     ',  33.0000,4,  21,  58,   2,1.00000,   0.0000,1.10000,0.90000,1.10000,0.90000
   216,'AL-CE0A4    ',  33.0000,1,  21,  58,   2,1.00000,  18.7998,1.10000,0.90000,1.10000,0.90000
   217,'AL-CE0A5    ',  33.0000,1,  21,  58,   2,0.99992,  18.7916,1.10000,0.90000,1.10000,0.90000
   218,'AL-CE0A3    ',  33.0000,1,  21,  58,   2,1.00008,  18.8028,1.10000,0.90000,1.10000,0.90000
   219,'AEG         ',  13.2000,2,  21,  58,   4,1.00008,  18.8028,1.10000,0.90000,1.10000,0.90000
   220,'PMADR132    ', 132.0000,1,  21,  51,   1,1.04169,  20.9709,1.10000,0.90000,1.10000,0.90000
   222,'AL-CE0A1    ',  33.0000,1,  21,  58,   2,1.02397,  21.1314,1.10000,0.90000,1.10000,0.90000
   224,'NPMAD330    ', 330.0000,1,  21,  42,  10,0.99759,  22.1610,1.10000,0.90000,1.10000,0.90000
   227,'SERV AUX    ',  33.0000,1,  21,  58,   2,0.99999,  18.7982,1.10000,0.90000,1.10000,0.90000
   230,'DGPAL132    ', 132.0000,1,  21,  52,  10,1.03572,  20.9146,1.10000,0.90000,1.10000,0.90000
   231,'PM-GEN      ',  33.0000,1,  21,  52,  10,1.01917,  18.6842,1.10000,0.90000,1.10000,0.90000
   232,'DGPALU33    ',  33.0000,2,  21,  52,   1,1.01917,  18.6842,1.10000,0.90000,1.10000,0.90000
   234,'PM-GEN      ',  13.2000,2,  21,  52,   4,0.99919,  18.6842,1.10000,0.90000,1.10000,0.90000
   235,'DGPA13-1    ',  13.2000,1,  21,  52,  10,1.01728,  18.5007,1.10000,0.90000,1.10000,0.90000
   237,'DGPA13-2    ',  13.2000,1,  21,  52,  10,1.01728,  18.5007,1.10000,0.90000,1.10000,0.90000
   240,'TRELW132    ', 132.0000,1,  21,  52,  10,1.00258,  22.3573,1.10000,0.90000,1.10000,0.90000
   242,'TREW13.2    ',  13.2000,2,  21,  52,   1,0.99653,  17.7548,1.10000,0.90000,1.10000,0.90000
   243,'RAWSON      ', 132.0000,1,  21,  52,   1,1.00363,  22.8719,1.10000,0.90000,1.10000,0.90000
   244,'TRELEW33    ',  33.0000,1,  21,  52,   1,1.00776,  18.7337,1.10000,0.90000,1.10000,0.90000
   245,'PM_EOL      ', 132.0000,4,  21,  52,   1,1.00000,   0.0000,1.10000,0.90000,1.10000,0.90000
   250,'AMEGH132    ', 132.0000,1,  21,  52,   1,1.04928,  26.3126,1.10000,0.90000,1.10000,0.90000
   251,'AMEGHI01    ',  13.2000,2,  21,  52,   6,1.05000,  29.9554,1.10000,0.90000,1.10000,0.90000
   252,'AMEGHI02    ',  13.2000,2,  21,  52,   6,1.05000,  29.9554,1.10000,0.90000,1.10000,0.90000
   258,'PER-132     ', 132.0000,1,  21,  51,   1,1.00548,  23.2290,1.10000,0.90000,1.10000,0.90000
   259,'AL-CEB      ', 132.0000,1,  21,  58,   2,1.00000,  21.0263,1.10000,0.90000,1.10000,0.90000
   260,'TR2 FICT    ',   1.0000,1,  21,  58,   2,0.97988,  21.1314,1.10000,0.90000,1.10000,0.90000
   261,'AL-CEA      ', 132.0000,1,  21,  58,   2,1.00009,  21.0083,1.10000,0.90000,1.10000,0.90000
   262,'TR1 FICT    ',   1.0000,1,  21,  58,   2,0.98074,  21.0261,1.10000,0.90000,1.10000,0.90000
   263,'TR3 FICT    ',   1.0000,1,  21,  58,   2,0.97980,  21.1476,1.10000,0.90000,1.10000,0.90000
   264,'FUTAL132    ', 132.0000,1,  21,  59,  10,1.03042,  37.2629,1.10000,0.90000,1.10000,0.90000
   265,'AL-CEB0C    ',  33.0000,1,  21,  58,   2,1.02389,  21.1476,1.10000,0.90000,1.10000,0.90000
   266,'ESQUE132    ', 132.0000,1,  21,  59,  10,1.02435,  36.6997,1.10000,0.90000,1.10000,0.90000
   268,'SERIE AT    ', 132.0000,1,  21,  58,   2,1.00007,  20.9974,1.10000,0.90000,1.10000,0.90000
   269,'SERIE BT    ', 132.0000,1,  21,  58,   2,1.00007,  20.9974,1.10000,0.90000,1.10000,0.90000
   271,'ELCOHIUE    ', 132.0000,1,  21,  59,   1,1.00879,  35.5780,1.10000,0.90000,1.10000,0.90000
   275,'LB_EOL      ', 132.0000,1,  21,  51,   1,1.04690,  22.9628,1.10000,0.90000,1.10000,0.90000
   280,'GOLONDRI    ',  13.2000,1,  21,  59,  10,0.97395,  28.0933,1.10000,0.90000,1.10000,0.90000
   281,'LIMRN-CH    ',  13.2000,1,  21,  59,  10,0.89866,  27.8319,1.10000,0.90000,1.10000,0.90000
   282,'ELBOLSON    ',  13.2000,1,  21,  59,   1,0.84253,  27.6067,1.10000,0.90000,1.10000,0.90000
   300,'SGRAN132    ', 132.0000,1,  21,  26,   1,0.93634,  12.7996,1.10000,0.90000,1.10000,0.90000
   304,'SGRA13.2    ',  13.2000,4,  21,  26,   4,1.00000,   0.0000,1.10000,0.90000,1.10000,0.90000
   310,'PCOLO132    ', 132.0000,1,  21,  26,  10,0.93144,  12.3835,1.10000,0.90000,1.10000,0.90000
   315,'RSCRUZ      ', 132.0000,1,  21,  53,   1,1.02820,  20.7444,1.10000,0.90000,1.10000,0.90000
   316,'S.JULIAN    ', 132.0000,4,  21,  53,   1,1.00000,   0.0000,1.10000,0.90000,1.10000,0.90000
   317,'M.ESPEJO    ', 132.0000,4,  21,  53,   1,1.00000,   0.0000,1.10000,0.90000,1.10000,0.90000
   318,'GREGORES    ', 132.0000,4,  21,  53,   1,1.00000,   0.0000,1.10000,0.90000,1.10000,0.90000
   320,'SANOE132    ', 132.0000,1,  21,  26,   1,0.85633,   6.0792,1.10000,0.90000,1.10000,0.90000
   322,'SANES132    ', 132.0000,1,  21,  26,   1,0.84359,   4.9029,1.10000,0.90000,1.10000,0.90000
   330,'VIEDM132    ', 132.0000,1,  21,  26,   1,0.78228,  -0.7407,1.10000,0.90000,1.10000,0.90000
   332,'VIED13.2    ',  13.2000,1,  21,  26,   1,0.91889,  -8.5386,1.10000,0.90000,1.10000,0.90000
   334,'VIEDMA33    ',  33.0000,1,  21,  26,  10,0.88361,  -6.0861,1.10000,0.90000,1.10000,0.90000
   400,'C.RIV.A1    ', 132.0000,1,  21,  52,  10,1.03542,  23.1988,1.10000,0.90000,1.10000,0.90000
   401,'C.RIV.A     ', 132.0000,1,  21,  54,  10,1.03543,  23.1992,1.10000,0.90000,1.10000,0.90000
   406,'CRI22/26    ',  13.2000,2,  21,  54,   4,1.03543,  23.1992,1.10000,0.90000,1.10000,0.90000
   408,'C.RIV.A1    ',  10.4000,1,  21,  54,   1,0.99799,  19.7779,1.10000,0.90000,1.10000,0.90000
   409,'CRI 21      ',  10.4000,2,  21,  54,   4,0.99799,  19.7776,1.10000,0.90000,1.10000,0.90000
   410,'C.RIV.A1    ',  66.0000,2,  21,  54,   1,1.01614,  22.1618,1.10000,0.90000,1.10000,0.90000
   420,'C.RIV.A1    ',  33.0000,2,  21,  54,   1,1.04130,  20.2650,1.10000,0.90000,1.10000,0.90000
   422,'CRI 23      ',  13.8000,2,  21,  54,   4,0.99463,  19.6153,1.10000,0.90000,1.10000,0.90000
   437,'CRI27/28    ',  13.8000,2,  21,  54,   8,1.05000,  24.9966,1.10000,0.90000,1.10000,0.90000
   438,'CRIVTV25    ',  13.8000,2,  21,  54,   8,1.03543,  23.1992,1.10000,0.90000,1.10000,0.90000
   440,'VHERM132    ', 132.0000,2,  21,  52,   1,1.01238,  21.7227,1.10000,0.90000,1.10000,0.90000
   441,'SAN JOSE    ', 132.0000,1,  21,  53,   1,0.97950,  18.4250,1.10000,0.90000,1.10000,0.90000
   442,'CNEGR132    ', 132.0000,2,  21,  52,   1,1.00538,  21.4037,1.10000,0.90000,1.10000,0.90000
   444,'PAMCA132    ', 132.0000,2,  21,  52,   1,1.01992,  22.1578,1.10000,0.90000,1.10000,0.90000
   445,'TORDI132    ', 132.0000,2,  21,  52,   1,1.01826,  22.0936,1.10000,0.90000,1.10000,0.90000
   446,'LPER1132    ', 132.0000,1,  21,  53,   1,1.01226,  23.9866,1.10000,0.90000,1.10000,0.90000
   447,'LPER2132    ', 132.0000,4,  21,  53,   1,1.00000,   0.0000,1.10000,0.90000,1.10000,0.90000
   448,'LASHE132    ', 132.0000,2,  21,  53,   1,0.99529,  20.4270,1.10000,0.90000,1.10000,0.90000
   449,'DIADEMA     ', 132.0000,1,  21,  52,   1,1.03401,  23.1741,1.10000,0.90000,1.10000,0.90000
   450,'BSM132R     ', 132.0000,2,  21,  52,   1,1.03897,  23.2824,1.10000,0.90000,1.10000,0.90000
   451,'DIADEMA     ',  34.5000,1,  21,  52,   1,1.03913,  23.6854,1.10000,0.90000,1.10000,0.90000
   452,'BSMA13.2    ',  13.2000,1,  21,  52,   1,0.98998,  16.5211,1.10000,0.90000,1.10000,0.90000
   453,'DIADEMA     ',   0.4000,2,  21,  54,  11,1.05000,  24.8103,1.10000,0.90000,1.10000,0.90000
   454,'BSMART33    ',  33.0000,1,  21,  52,   1,1.00955,  18.6960,1.10000,0.90000,1.10000,0.90000
   455,'AIKE        ', 132.0000,1,  21,  54,   1,0.98546,  19.0445,1.10000,0.90000,1.10000,0.90000
   456,'ELRETIRO    ', 132.0000,1,  21,  54,   1,0.97374,  18.1457,1.10000,0.90000,1.10000,0.90000
   457,'C.NEGRO.OP  ', 132.0000,1,  21,  54,   1,0.97351,  18.1309,1.10000,0.90000,1.10000,0.90000
   459,'PT1-132R    ', 132.0000,2,  21,  53,   1,1.03596,  19.9585,1.10000,0.90000,1.10000,0.90000
   460,'PT1-132M    ', 132.0000,1,  21,  54,   1,1.03597,  19.9594,1.10000,0.90000,1.10000,0.90000
   461,'SCN_132     ', 132.0000,1,  21,  53,  10,1.03607,  19.9564,1.10000,0.90000,1.10000,0.90000
   462,'PTRUN235    ',  35.0000,1,  21,  53,   1,1.00693,  21.6611,1.10000,0.90000,1.10000,0.90000
   463,'PTRUN35R    ',  35.0000,2,  21,  53,   1,1.00693,  21.6607,1.10000,0.90000,1.10000,0.90000
   464,'PTRUTG24    ',  13.8000,2,  21,  53,   4,0.96822,  21.7073,1.10000,0.90000,1.10000,0.90000
   466,'PTRUTG25    ',  10.5000,2,  21,  54,   4,0.96823,  21.7408,1.10000,0.90000,1.10000,0.90000
   467,'PCR         ', 132.0000,1,  21,  53,   1,1.03602,  19.9336,1.10000,0.90000,1.10000,0.90000
   468,'PTRUTG23    ',  10.5000,2,  21,  53,   4,1.02000,  25.0101,1.10000,0.90000,1.10000,0.90000
   469,'SCN_NEU     ',   1.0000,1,  21,  54,  10,0.99706,  19.9527,1.10000,0.90000,1.10000,0.90000
   470,'PT2--132    ', 132.0000,1,  21,  53,  10,1.03566,  19.9362,1.10000,0.90000,1.10000,0.90000
   472,'PT2-6.9     ',  35.0000,1,  21,  53,   1,1.02991,  19.2522,1.10000,0.90000,1.10000,0.90000
   475,'HUEMUL      ',  35.0000,1,  21,  53,   1,1.05004,  24.3492,1.10000,0.90000,1.10000,0.90000
   476,'CT.HUEMUL   ',   0.4000,2,  21,  53,   1,1.05000,  24.5114,1.10000,0.90000,1.10000,0.90000
   479,'SCN_TER     ',  13.2000,1,  21,  54,  10,1.04238,  19.9527,1.10000,0.90000,1.10000,0.90000
   480,'PDES132M    ', 132.0000,1,  21,  53,   1,1.04234,  18.5557,1.10000,0.90000,1.10000,0.90000
   481,'PDES132R    ', 132.0000,4,  21,  53,   1,1.00000,   0.0000,1.10000,0.90000,1.10000,0.90000
   482,'C.MORO      ', 132.0000,4,  21,  53,   1,1.00000,   0.0000,1.10000,0.90000,1.10000,0.90000
   483,'PS.A.BIEDMA ', 132.0000,1,  21,  53,   1,1.04470,  19.1884,1.10000,0.90000,1.10000,0.90000
   490,'CTPAT132    ', 132.0000,1,  21,  52,  10,1.04059,  23.6767,1.10000,0.90000,1.10000,0.90000
   491,'CTPATG01    ',  11.5000,2,  21,  52,   8,1.05000,  27.8025,1.10000,0.90000,1.10000,0.90000
   492,'CTPATG02    ',  11.5000,2,  21,  52,   8,1.05000,  27.8025,1.10000,0.90000,1.10000,0.90000
   493,'CTPATV01    ',  11.5000,2,  21,  52,   8,1.05000,  26.5158,1.10000,0.90000,1.10000,0.90000
   501,'PMD.TER1    ',  33.0000,1,  21,  42,  10,0.99480,  -7.5111,1.10000,0.90000,1.10000,0.90000
   504,'RSCRUZ      ',  13.2000,1,  21,  53,   1,1.02823,  20.7498,1.10000,0.90000,1.10000,0.90000
   510,'PMD1.TER    ',  34.5000,1,  21,  42,  10,1.04774,  21.1494,1.10000,0.90000,1.10000,0.90000
   511,'PMD2.TER    ',  34.5000,1,  21,  42,  10,1.04698,  21.1272,1.10000,0.90000,1.10000,0.90000
   514,'CRITER10    ',  13.8000,1,  21,  54,  10,1.01474,  21.9962,1.10000,0.90000,1.10000,0.90000
   515,'CRITER11    ',  13.8000,1,  21,  54,  10,1.01411,  22.0495,1.10000,0.90000,1.10000,0.90000
   516,'ESQ1.TER    ',  13.8000,1,  21,  59,  10,0.99208,  32.8582,1.10000,0.90000,1.10000,0.90000
   518,'FUT1.TER    ',  34.5000,1,  21,  59,  10,1.02973,  36.9481,1.10000,0.90000,1.10000,0.90000
   520,'ESQUEL33    ',  33.0000,1,  21,  59,   1,1.03816,  32.9834,1.10000,0.90000,1.10000,0.90000
   522,'ELCOIHUE    ',  33.0000,1,  21,  59,   1,0.97819,  32.2444,1.10000,0.90000,1.10000,0.90000
   523,'RTURTV1     ',  11.0000,2,  21,  54,   5,1.00000,  29.6295,1.10000,0.90000,1.10000,0.90000
   524,'GOLONDRI    ',  33.0000,1,  21,  59,   1,0.94352,  30.3618,1.10000,0.90000,1.10000,0.90000
   525,'RTURTV2     ',  11.0000,4,  21,  54,   5,1.00000,   0.0000,1.10000,0.90000,1.10000,0.90000
   530,'PM_EOL_01   ',  33.0000,4,  21,  52,   1,1.00000,   0.0000,1.10000,0.90000,1.10000,0.90000
   531,'PM_EOL_01   ',  33.0000,4,  21,  52,   1,1.00000,   0.0000,1.10000,0.90000,1.10000,0.90000
   545,'ESP.TER1    ',  33.0000,1,  21,  54,   1,1.02299,  22.2324,1.10000,0.90000,1.10000,0.90000
   546,'ESP.TER2    ',  33.0000,1,  21,  54,   1,1.06901,  21.4289,1.10000,0.90000,1.10000,0.90000
   547,'RGALLEGO    ',  33.0000,1,  21,  54,   1,1.02903,  21.0701,1.10000,0.90000,1.10000,0.90000
   548,'RGA.TER1    ',  13.2000,1,  21,  54,   1,1.02903,  21.0701,1.10000,0.90000,1.10000,0.90000
   552,'LB_EOL_02   ',  33.0000,4,  21,  51,   1,1.00000,   0.0000,1.10000,0.90000,1.10000,0.90000
   553,'LB_EOL_02   ',  33.0000,4,  21,  51,   1,1.00000,   0.0000,1.10000,0.90000,1.10000,0.90000
   556,'LB_EOL_04   ',  33.0000,1,  21,  51,   1,1.04121,  27.1583,1.10000,0.90000,1.10000,0.90000
   557,'LB_EOL_04   ',  33.0000,1,  21,  51,   1,1.04423,  27.5752,1.10000,0.90000,1.10000,0.90000
   570,'PER-33      ',  33.0000,1,  21,  42,  10,0.95452,  25.5996,1.10000,0.90000,1.10000,0.90000
   571,'PER-33      ',  33.0000,1,  21,  42,  10,0.95641,  25.7072,1.10000,0.90000,1.10000,0.90000
   661,'LPERTG01    ',  11.0000,2,  21,  53,   4,1.02000,  28.9204,1.10000,0.90000,1.10000,0.90000
   662,'LPERTG02    ',  11.0000,2,  21,  53,   4,1.02000,  28.9204,1.10000,0.90000,1.10000,0.90000
   670,'RCHICOG1    ',  13.2000,4,  21,  53,   4,1.00000,   0.0000,1.10000,0.90000,1.10000,0.90000
   671,'RCHICOG2    ',  13.2000,4,  21,  53,   4,1.00000,   0.0000,1.10000,0.90000,1.10000,0.90000
   673,'RCHICOG3    ',  13.2000,4,  21,  53,   4,1.00000,   0.0000,1.10000,0.90000,1.10000,0.90000
   674,'RCHICOG4    ',  13.2000,4,   1,   1,   4,1.00000,   0.0000,1.10000,0.90000,1.10000,0.90000
   720,'ESPERANZ    ', 132.0000,1,  21,  54,   1,1.04722,  21.4845,1.10000,0.90000,1.10000,0.90000
   721,'CALAFATE    ', 132.0000,1,  21,  54,   1,1.03498,  19.4988,1.10000,0.90000,1.10000,0.90000
   901,'PMD.NEU1    ',   1.0000,1,  21,   2,  10,0.99480,  22.4889,1.10000,0.90000,1.10000,0.90000
   910,'PMD1.NEU    ',   1.0000,1,  21,  42,  10,1.04774,  21.1494,1.10000,0.90000,1.10000,0.90000
   911,'PMD2.NEU    ',   1.0000,1,  21,  42,  10,1.04698,  21.1272,1.10000,0.90000,1.10000,0.90000
   914,'CRINEU10    ',   1.0000,1,  21,  54,  10,1.01474,  21.9962,1.10000,0.90000,1.10000,0.90000
   915,'CRINEU11    ',   1.0000,1,  21,  54,  10,1.01411,  22.0495,1.10000,0.90000,1.10000,0.90000
   916,'ESQ1.NEU    ',   1.0000,1,  21,  59,  10,0.99208,  32.8582,1.10000,0.90000,1.10000,0.90000
   918,'FUT1.NEU    ',   1.0000,1,  21,  59,  10,1.02973,  36.9481,1.10000,0.90000,1.10000,0.90000
   923,'DGP.NEU1    ',   1.0000,1,  21,  42,  10,0.97305,  18.5007,1.10000,0.90000,1.10000,0.90000
   924,'DGP.NEU2    ',   1.0000,1,  21,  42,  10,0.97305,  18.5007,1.10000,0.90000,1.10000,0.90000
   930,'VIE.NEU1    ',   1.0000,1,  21,  26,  10,0.88361,  -6.0861,1.10000,0.90000,1.10000,0.90000
   931,'VIE.NEU2    ',   1.0000,1,  21,  26,  10,0.88361,  -6.0861,1.10000,0.90000,1.10000,0.90000
   933,'RSCR.NEU1   ',   1.0000,1,  21,  53,  10,1.02823,  20.7498,1.10000,0.90000,1.10000,0.90000
   945,'ESP.NEU1    ',   1.0000,1,  21,  54,  10,0.97851,  22.2324,1.10000,0.90000,1.10000,0.90000
   946,'ESP.NEU2    ',   1.0000,1,  21,  54,  10,1.02253,  21.4289,1.10000,0.90000,1.10000,0.90000
   948,'RGA.NEU1    ',   1.0000,1,  21,  54,  10,0.98424,  21.0701,1.10000,0.90000,1.10000,0.90000
   950,'BSM.NEU1    ',   1.0000,1,  21,  52,  10,1.01148,  18.6813,1.10000,0.90000,1.10000,0.90000
   951,'BSM.NEU2    ',   1.0000,1,  21,  52,  10,1.01150,  18.6653,1.10000,0.90000,1.10000,0.90000
   960,'TRW.NEU1    ',   1.0000,1,  21,  52,  10,0.96033,  18.5301,1.10000,0.90000,1.10000,0.90000
   961,'TRW.NEU2    ',   1.0000,1,  21,  52,  10,0.96072,  18.5542,1.10000,0.90000,1.10000,0.90000
   962,'TRW.NEU3    ',   1.0000,1,  21,  52,  10,1.05633,  18.5886,1.10000,0.90000,1.10000,0.90000
   965,'CRI.NEU1    ',   1.0000,1,  21,  54,  10,0.99484,  20.1260,1.10000,0.90000,1.10000,0.90000
   966,'CRI.NEU5    ',   1.0000,1,  21,  54,  10,0.99503,  20.1483,1.10000,0.90000,1.10000,0.90000
   967,'CRI.NEU5    ',   1.0000,1,  21,  54,  10,0.99536,  20.1543,1.10000,0.90000,1.10000,0.90000
   970,'PT1.NEU1    ',   1.0000,1,  21,  53,  10,0.96822,  21.7073,1.10000,0.90000,1.10000,0.90000
   971,'PT1.NEU2    ',   1.0000,1,  21,  53,  10,0.96823,  21.7408,1.10000,0.90000,1.10000,0.90000
  1000,'CHOCON      ', 500.0000,1,   1,   2,  10,1.03363,  18.6039,1.10000,0.90000,1.10000,0.90000
  1002,'P.AGUILA    ', 500.0000,1,   1,   2,  10,1.02658,  23.8915,1.10000,0.90000,1.10000,0.90000
  1004,'CHOCONOE    ', 500.0000,1,   1,   2,  10,1.03369,  18.6140,1.10000,0.90000,1.10000,0.90000
  1006,'CHOE.CH     ', 500.0000,1,   1,   2,  10,1.00766,   7.7921,1.10000,0.90000,1.10000,0.90000
  1007,'CHOE.PA     ', 500.0000,1,   1,   2,  10,1.03037,   7.8861,1.10000,0.90000,1.10000,0.90000
  1008,'CH.CHOEL    ', 500.0000,1,   1,   2,   1,1.00772,  14.2231,1.10000,0.90000,1.10000,0.90000
  1010,'CHOE.BB1    ', 500.0000,1,   1,   2,  10,0.99680,  22.2556,1.10000,0.90000,1.10000,0.90000
  1011,'CHOE.BB2    ', 500.0000,1,   1,   2,  10,0.99798,  20.9575,1.10000,0.90000,1.10000,0.90000
  1012,'C.COSTA     ', 500.0000,1,   1,   2,  10,1.03629,  15.5516,1.10000,0.90000,1.10000,0.90000
  1014,'T.AGUI1     ', 500.0000,1,   1,   2,  10,1.02663,  23.7284,1.10000,0.90000,1.10000,0.90000
  1016,'ALICURA     ', 500.0000,1,   1,   2,  10,1.01543,  25.5642,1.10000,0.90000,1.10000,0.90000
  1018,'C.H.CHOC    ', 500.0000,1,   1,   2,  10,1.03371,  18.6367,1.10000,0.90000,1.10000,0.90000
  1020,'L.LATA      ', 500.0000,1,   1,   2,  10,1.03655,  17.6598,1.10000,0.90000,1.10000,0.90000
  1022,'PPLEUFU     ', 500.0000,1,   1,   2,  10,1.02674,  23.8795,1.10000,0.90000,1.10000,0.90000
  1024,'P.BAND.     ', 500.0000,1,   1,   2,  10,1.03613,  16.7191,1.10000,0.90000,1.10000,0.90000
  1025,'A.CAJON     ', 500.0000,1,   1,   2,  10,1.02793,  17.9642,1.10000,0.90000,1.10000,0.90000
  1026,'PUELCHE1    ', 500.0000,1,   1,   2,  10,1.02878,   3.8178,1.10000,0.90000,1.10000,0.90000
  1028,'PUELCHE2    ', 500.0000,1,   1,   2,  10,1.02464,  15.0799,1.10000,0.90000,1.10000,0.90000
  1030,'MACACHIN    ', 500.0000,1,   1,   2,  10,1.00517,   2.5541,1.10000,0.90000,1.10000,0.90000
  1200,'ACAJON 1    ', 132.0000,1,   7,  27,  10,1.05814,  22.8392,1.10000,0.90000,1.10000,0.90000
  1202,'ACAJON 2    ', 132.0000,1,   7,  27,  10,1.01170,  18.0147,1.10000,0.90000,1.10000,0.90000
  1203,'ACAJON 3    ', 132.0000,1,   7,  27,  10,1.05526,  23.9530,1.10000,0.90000,1.10000,0.90000
  1204,'ALICURA     ', 132.0000,1,   7,  27,  10,1.04594,  22.9770,1.10000,0.90000,1.10000,0.90000
  1206,'A.VALLE     ', 132.0000,1,   7,  26,   1,0.98984,  12.4544,1.10000,0.90000,1.10000,0.90000
  1208,'ARROYITO    ', 132.0000,1,   7,  26,   1,1.00723,  17.2971,1.10000,0.90000,1.10000,0.90000
  1210,'BARILOCH    ', 132.0000,1,   7,  26,   1,1.00224,  20.2068,1.10000,0.90000,1.10000,0.90000
  1211,'BARILOCH    ',  13.2000,1,   7,  26,   1,1.02712,  24.6640,1.10000,0.90000,1.10000,0.90000
  1212,'T. ROCA     ', 132.0000,1,   7,  26,  10,0.98230,  10.1107,1.10000,0.90000,1.10000,0.90000
  1213,'L.NEGRA     ', 132.0000,1,   7,  26,   2,0.97940,   9.9047,1.10000,0.90000,1.10000,0.90000
  1214,'CASAPIED    ', 132.0000,1,   7,  25,  10,1.04415,  17.4079,1.10000,0.90000,1.10000,0.90000
  1215,'R.NEUQUE    ', 132.0000,1,   7,  27,   1,0.97628,  12.4203,1.10000,0.90000,1.10000,0.90000
  1216,'CENTENAR    ', 132.0000,1,   7,  27,  10,0.97326,  12.4124,1.10000,0.90000,1.10000,0.90000
  1217,'R.NEUQ T    ', 132.0000,1,   7,  27,  10,0.97629,  12.4209,1.10000,0.90000,1.10000,0.90000
  1218,'CESPEDES    ', 132.0000,1,   7,  26,   1,1.00090,  11.1215,1.10000,0.90000,1.10000,0.90000
  1220,'C.H.ARRO    ', 132.0000,1,   7,  27,  10,1.00755,  17.3536,1.10000,0.90000,1.10000,0.90000
  1222,'CHIHUIDO    ', 132.0000,1,   7,  27,   2,1.00007,   8.8710,1.10000,0.90000,1.10000,0.90000
  1223,'TRAPIAL     ', 132.0000,1,   7,  27,   1,1.00117,   8.9852,1.10000,0.90000,1.10000,0.90000
  1224,'CHOCONOE    ', 132.0000,1,   7,  27,  10,1.01785,  17.7553,1.10000,0.90000,1.10000,0.90000
  1226,'CH.CHOEL    ', 132.0000,1,   7,  26,  10,1.00128,  11.1477,1.10000,0.90000,1.10000,0.90000
  1228,'CHOSMALA    ', 132.0000,1,   7,  27,   1,0.98380,   6.7738,1.10000,0.90000,1.10000,0.90000
  1229,'L.BELTRAN   ', 132.0000,1,   7,  26,   1,0.99719,  10.0506,1.10000,0.90000,1.10000,0.90000
  1230,'5 SALTOS    ', 132.0000,1,   7,  26,   1,0.99477,  11.9200,1.10000,0.90000,1.10000,0.90000
  1232,'CIPOLLET    ', 132.0000,1,   7,  26,   1,0.98602,  11.6294,1.10000,0.90000,1.10000,0.90000
  1234,'C.VALENT    ', 132.0000,1,   7,  27,   1,0.99284,  13.6071,1.10000,0.90000,1.10000,0.90000
  1236,'CUTRALCO    ', 132.0000,1,   7,  27,   1,1.00712,  17.4433,1.10000,0.90000,1.10000,0.90000
  1238,'DIVISADE    ', 132.0000,1,   7,  25,   1,1.01185,  13.5453,1.10000,0.90000,1.10000,0.90000
  1240,'CHOCON      ', 132.0000,1,   7,  27,  10,1.02146,  17.6266,1.10000,0.90000,1.10000,0.90000
  1242,'CHNCITO     ', 132.0000,1,   7,  27,   1,1.02087,  17.6018,1.10000,0.90000,1.10000,0.90000
  1244,'E.LOMAS     ', 132.0000,1,   7,  26,   1,0.99812,  12.6899,1.10000,0.90000,1.10000,0.90000
  1246,'F.MORADO    ', 132.0000,1,   7,  27,   1,0.98772,   7.1925,1.10000,0.90000,1.10000,0.90000
  1248,'GEN.ACHA    ', 132.0000,1,   7,  25,   1,0.99690,  -6.4602,1.10000,0.90000,1.10000,0.90000
  1250,'GEN.PICO    ', 132.0000,1,   7,  25,   1,0.91519, -15.8551,1.10000,0.90000,1.10000,0.90000
  1252,'GEN.ROCA    ', 132.0000,1,   7,  26,   1,0.97932,   9.7392,1.10000,0.90000,1.10000,0.90000
  1254,'G.NEUQ.     ', 132.0000,1,   7,  27,  10,0.96677,  12.5563,1.10000,0.90000,1.10000,0.90000
  1256,'GUATRACH    ', 132.0000,1,   7,  25,   1,0.98966,  -6.8715,1.10000,0.90000,1.10000,0.90000
  1257,'GUATRAC2    ', 132.0000,1,   7,  25,   1,0.98966,  -6.8709,1.10000,0.90000,1.10000,0.90000
  1260,'LAJAS       ', 132.0000,1,   7,  27,   1,0.99622,  16.4952,1.10000,0.90000,1.10000,0.90000
  1262,'L.LATA      ', 132.0000,1,   7,  27,   1,1.02682,  11.9405,1.10000,0.90000,1.10000,0.90000
  1263,'MEGA        ', 132.0000,1,   7,  27,   1,1.03121,  12.6744,1.10000,0.90000,1.10000,0.90000
  1264,'MEDANITO    ', 132.0000,1,   7,  26,   1,1.00462,  12.3494,1.10000,0.90000,1.10000,0.90000
  1266,'PAMPA TR    ', 132.0000,1,   7,  27,   1,0.98661,   7.0411,1.10000,0.90000,1.10000,0.90000
  1268,'P.BAND.     ', 132.0000,1,   7,  27,  10,1.03851,  13.5835,1.10000,0.90000,1.10000,0.90000
  1270,'P.AGUILA    ', 132.0000,1,   7,  27,   1,1.03503,  16.9910,1.10000,0.90000,1.10000,0.90000
  1271,'PICHIMAH    ', 132.0000,1,   7,  25,   1,1.04097,   0.6276,1.10000,0.90000,1.10000,0.90000
  1272,'PILCANIY    ', 132.0000,1,   7,  26,   1,1.01863,  20.9555,1.10000,0.90000,1.10000,0.90000
  1273,'S.ANDERSEN  ', 132.0000,1,   7,  25,   1,1.04134,   0.6942,1.10000,0.90000,1.10000,0.90000
  1274,'P.PROTO     ', 132.0000,1,   7,  27,   1,1.02646,  21.0563,1.10000,0.90000,1.10000,0.90000
  1275,'S.ANDERSEN  ',  13.2000,1,   7,  25,   1,1.03656,   3.2031,1.10000,0.90000,1.10000,0.90000
  1276,'PPBAND      ', 132.0000,1,   7,  27,   1,1.03601,  13.4143,1.10000,0.90000,1.10000,0.90000
  1278,'HUINCUL     ', 132.0000,1,   7,  27,   1,1.00638,  17.5661,1.10000,0.90000,1.10000,0.90000
  1280,'PIAP        ', 132.0000,1,   7,  27,   2,1.00663,  17.2388,1.10000,0.90000,1.10000,0.90000
  1282,'P.HERNAN    ', 132.0000,1,   7,  27,   2,0.99215,   7.9742,1.10000,0.90000,1.10000,0.90000
  1283,'R.SAUCE     ', 132.0000,1,   7,  27,   1,1.00265,   9.0366,1.10000,0.90000,1.10000,0.90000
  1284,'P.SECC.     ', 132.0000,1,   7,  27,   2,0.99832,  10.7407,1.10000,0.90000,1.10000,0.90000
  1286,'PUELCHES    ', 132.0000,1,   7,  25,  10,1.03715,   0.6143,1.10000,0.90000,1.10000,0.90000
  1287,'REAL.SEC    ',  34.5000,1,   7,  25,   1,0.97962, -15.7075,1.10000,0.90000,1.10000,0.90000
  1288,'REALICO     ', 132.0000,1,   7,  25,   1,0.93482, -17.2365,1.10000,0.90000,1.10000,0.90000
  1289,'MACACHIN    ', 132.0000,1,   7,  25,   1,1.05294,  -3.9480,1.10000,0.90000,1.10000,0.90000
  1290,'R.COLOR     ', 132.0000,1,   7,  26,   1,1.00742,  10.1734,1.10000,0.90000,1.10000,0.90000
  1291,'REAL.TER    ',  13.2000,1,   7,  25,   1,0.97593, -16.5829,1.10000,0.90000,1.10000,0.90000
  1292,'S. ROSA     ', 132.0000,1,   7,  25,   1,0.97493,  -9.6575,1.10000,0.90000,1.10000,0.90000
  1293,'M.MAYER     ', 132.0000,1,   7,  25,   1,0.93952, -13.0434,1.10000,0.90000,1.10000,0.90000
  1294,'S.PICADA    ', 132.0000,1,   7,  26,   2,0.99341,  10.5111,1.10000,0.90000,1.10000,0.90000
  1295,'S.ROSA.SUR  ', 132.0000,1,   7,  25,   1,0.97359,  -9.6623,1.10000,0.90000,1.10000,0.90000
  1296,'V.REGINA    ', 132.0000,1,   7,  26,   1,0.98305,   8.6278,1.10000,0.90000,1.10000,0.90000
  1298,'ZAPALA      ', 132.0000,1,   7,  27,   1,1.00038,  16.8201,1.10000,0.90000,1.10000,0.90000
  1400,'CHIHUIDO    ',  13.2000,4,   7,  27,   1,1.00000,   0.0000,1.10000,0.90000,1.10000,0.90000
  1500,'AVA.TER1    ',  33.0000,1,   7,  27,   1,0.99400,  11.0797,1.10000,0.90000,1.10000,0.90000
  1501,'AVA.TER2    ',  33.0000,1,   7,  27,   1,0.99400,  11.0797,1.10000,0.90000,1.10000,0.90000
  1502,'G.NEUQ.     ',  33.0000,1,   7,  27,   1,0.91287,   6.8815,1.10000,0.90000,1.10000,0.90000
  1503,'V.TURIST    ',  33.0000,1,   7,  25,   1,1.04010,  17.0181,1.10000,0.90000,1.10000,0.90000
  1504,'P.HERNAN    ',  33.0000,1,   7,  27,   1,0.95324,   3.6158,1.10000,0.90000,1.10000,0.90000
  1505,'ZANON       ',  33.0000,4,   7,  27,   1,1.00000,   0.0000,1.10000,0.90000,1.10000,0.90000
  1506,'CASAPIED    ',  33.0000,1,   7,  25,   1,1.04358,  17.2422,1.10000,0.90000,1.10000,0.90000
  1507,'CENTENAR    ',  33.0000,1,   7,  27,   1,0.92685,   6.3675,1.10000,0.90000,1.10000,0.90000
  1508,'DIVI.TER    ',  33.0000,4,   7,  25,   1,1.00000,   0.0000,1.10000,0.90000,1.10000,0.90000
  1509,'P.I.NEUQ    ',  33.0000,4,   7,  27,   1,1.00000,   0.0000,1.10000,0.90000,1.10000,0.90000
  1512,'E.LOMAS     ',  33.0000,1,   7,  26,  10,0.98433,  14.9373,1.10000,0.90000,1.10000,0.90000
  1514,'E.LOMAS2    ',  33.0000,1,   7,  26,   1,0.99729,  18.7186,1.10000,0.90000,1.10000,0.90000
  1530,'CHIHUIDO    ',  33.0000,4,   7,  27,   1,1.00000,   0.0000,1.10000,0.90000,1.10000,0.90000
  1534,'LOMITA      ',  33.0000,4,   7,  27,  10,1.00000,   0.0000,1.10000,0.90000,1.10000,0.90000
  1535,'CHIHUIDO2   ',  33.0000,4,   7,  27,  10,1.00000,   0.0000,1.10000,0.90000,1.10000,0.90000
  1540,'ZAPALA      ',  33.0000,1,   7,  27,  10,1.03487,  16.3443,1.10000,0.90000,1.10000,0.90000
  1541,'Z.FRANCA    ',  33.0000,1,   7,  27,  10,1.03537,  16.7417,1.10000,0.90000,1.10000,0.90000
  1542,'CBANDERA    ',  33.0000,1,   7,  27,  10,1.03703,  18.1154,1.10000,0.90000,1.10000,0.90000